Input Parameters:
   integrator                     = md
   tinit                          = 0
   dt                             = 0.001
   nsteps                         = 5000
   init-step                      = 0
   simulation-part                = 1
   comm-mode                      = Linear
   nstcomm                        = 100
   bd-fric                        = 0
   ld-seed                        = 396117680
   emtol                          = 10
   emstep                         = 0.01
   niter                          = 20
   fcstep                         = 0
   nstcgsteep                     = 1000
   nbfgscorr                      = 10
   rtpi                           = 0.05
   nstxout                        = 0
   nstvout                        = 0
   nstfout                        = 0
   nstlog                         = 100
   nstcalcenergy                  = 100
   nstenergy                      = 100
   nstxout-compressed             = 1000
   compressed-x-precision         = 200
   cutoff-scheme                  = Group
   nstlist                        = 10
   ns-type                        = Grid
   pbc                            = xyz
   periodic-molecules             = false
   verlet-buffer-tolerance        = 0.005
   rlist                          = 1.6
   coulombtype                    = PME
   coulomb-modifier               = None
   rcoulomb-switch                = 0
   rcoulomb                       = 1.6
   epsilon-r                      = 2.5
   epsilon-rf                     = inf
   vdw-type                       = Cut-off
   vdw-modifier                   = Force-switch
   rvdw-switch                    = 0.9
   rvdw                           = 1.2
   DispCorr                       = No
   table-extension                = 1
   fourierspacing                 = 0.12
   fourier-nx                     = 160
   fourier-ny                     = 160
   fourier-nz                     = 160
   pme-order                      = 4
   ewald-rtol                     = 1e-05
   ewald-rtol-lj                  = 0.001
   lj-pme-comb-rule               = Geometric
   ewald-geometry                 = 0
   epsilon-surface                = 0
   tcoupl                         = Nose-Hoover
   nsttcouple                     = 1
   nh-chain-length                = 1
   print-nose-hoover-chain-variables = false
   pcoupl                         = Parrinello-Rahman
   pcoupltype                     = Isotropic
   nstpcouple                     = 1
   tau-p                          = 5
   compressibility (3x3):
      compressibility[    0]={ 3.50000e-05,  0.00000e+00,  0.00000e+00}
      compressibility[    1]={ 0.00000e+00,  3.50000e-05,  0.00000e+00}
      compressibility[    2]={ 0.00000e+00,  0.00000e+00,  3.50000e-05}
   ref-p (3x3):
      ref-p[    0]={ 1.00000e+00,  0.00000e+00,  0.00000e+00}
      ref-p[    1]={ 0.00000e+00,  1.00000e+00,  0.00000e+00}
      ref-p[    2]={ 0.00000e+00,  0.00000e+00,  1.00000e+00}
   refcoord-scaling               = COM
   posres-com (3):
      posres-com[0]= 6.16242e-01
      posres-com[1]= 8.60878e-01
      posres-com[2]= 5.80400e-01
   posres-comB (3):
      posres-comB[0]= 6.16242e-01
      posres-comB[1]= 8.60878e-01
      posres-comB[2]= 5.80400e-01
   QMMM                           = false
   QMconstraints                  = 0
   QMMMscheme                     = 0
   MMChargeScaleFactor            = 1
qm-opts:
   ngQM                           = 0
   constraint-algorithm           = Lincs
   continuation                   = false
   Shake-SOR                      = false
   shake-tol                      = 0.0001
   lincs-order                    = 4
   lincs-iter                     = 1
   lincs-warnangle                = 30
   nwall                          = 0
   wall-type                      = 9-3
   wall-r-linpot                  = -1
   wall-atomtype[0]               = -1
   wall-atomtype[1]               = -1
   wall-density[0]                = 0
   wall-density[1]                = 0
   wall-ewald-zfac                = 3
   pull                           = false
   awh                            = false
   rotation                       = false
   interactiveMD                  = false
   disre                          = No
   disre-weighting                = Conservative
   disre-mixed                    = false
   dr-fc                          = 1000
   dr-tau                         = 0
   nstdisreout                    = 100
   orire-fc                       = 0
   orire-tau                      = 0
   nstorireout                    = 100
   free-energy                    = no
   cos-acceleration               = 0
   deform (3x3):
      deform[    0]={ 0.00000e+00,  0.00000e+00,  0.00000e+00}
      deform[    1]={ 0.00000e+00,  0.00000e+00,  0.00000e+00}
      deform[    2]={ 0.00000e+00,  0.00000e+00,  0.00000e+00}
   simulated-tempering            = false
   swapcoords                     = no
   userint1                       = 0
   userint2                       = 0
   userint3                       = 0
   userint4                       = 0
   userreal1                      = 0
   userreal2                      = 0
   userreal3                      = 0
   userreal4                      = 0
   applied-forces:
     electric-field:
       x:
         E0                       = 0
         omega                    = 0
         t0                       = 0
         sigma                    = 0
       y:
         E0                       = 0
         omega                    = 0
         t0                       = 0
         sigma                    = 0
       z:
         E0                       = 0
         omega                    = 0
         t0                       = 0
         sigma                    = 0
grpopts:
   nrdf:      9839.9      288674
   ref-t:         300         300
   tau-t:           1           1
annealing:          No          No
annealing-npoints:           0           0
   acc:	           0           0           0
   nfreeze:           N           N           N
   energygrp-flags[  0]: 0

The -nsteps functionality is deprecated, and may be removed in a future version. Consider using gmx convert-tpr -nsteps or changing the appropriate .mdp file field.

Overriding nsteps with value passed on the command line: 1000 steps, 1 ps

Initializing Domain Decomposition on 6 ranks
Dynamic load balancing: locked
Minimum cell size due to atom displacement: 0.021 nm
Initial maximum distances in bonded interactions:
    two-body bonded interactions: 1.592 nm, Exclusion, atoms 140 149
  multi-body bonded interactions: 1.083 nm, Angle, atoms 158 164
Minimum cell size due to bonded interactions: 1.191 nm
Using 0 separate PME ranks, as there are too few total
 ranks for efficient splitting
Scaling the initial minimum size with 1/0.8 (option -dds) = 1.25
Optimizing the DD grid for 6 cells with a minimum initial size of 1.489 nm
The maximum allowed number of cells is: X 12 Y 12 Z 12
Domain decomposition grid 6 x 1 x 1, separate PME ranks 0
PME domain decomposition: 6 x 1 x 1
Domain decomposition rank 0, coordinates 0 0 0

The initial number of communication pulses is: X 1
The initial domain decomposition cell size is: X 3.00 nm

The maximum allowed distance for charge groups involved in interactions is:
                 non-bonded interactions           1.600 nm
(the following are initial values, they could change due to box deformation)
            two-body bonded interactions  (-rdd)   1.600 nm
          multi-body bonded interactions  (-rdd)   1.600 nm

When dynamic load balancing gets turned on, these settings will change to:
The maximum number of communication pulses is: X 1
The minimum size for domain decomposition cells is 1.600 nm
The requested allowed shrink of DD cells (option -dds) is: 0.80
The allowed shrink of domain decomposition cells is: X 0.53
The maximum allowed distance for charge groups involved in interactions is:
                 non-bonded interactions           1.600 nm
            two-body bonded interactions  (-rdd)   1.600 nm
          multi-body bonded interactions  (-rdd)   1.600 nm

Using 6 MPI processes

Pinning threads with an auto-selected logical core stride of 2

NOTE: This file uses the deprecated 'group' cutoff_scheme. This will be
removed in a future release when 'verlet' supports all interaction forms.

System total charge: 0.000
Will do PME sum in reciprocal space for electrostatic interactions.

Using a Gaussian width (1/beta) of 0.51226 nm for Ewald
Potential shift: LJ r^-12: -3.715e-01 r^-6: -6.593e-01, Ewald -0.000e+00
Initialized non-bonded Ewald correction tables, spacing: 1.18e-03 size: 2205

Table routines are used for coulomb: false
Table routines are used for vdw:     true
Cut-off's:   NS: 1.6   Coulomb: 1.6   LJ: 1.2
Generated table with 1300 data points for Ewald.
Tabscale = 500 points/nm
Generated table with 1300 data points for LJ6Shift.
Tabscale = 500 points/nm
Generated table with 1300 data points for LJ12Shift.
Tabscale = 500 points/nm
Generated table with 1300 data points for 1-4 COUL.
Tabscale = 500 points/nm
Generated table with 1300 data points for 1-4 LJ6.
Tabscale = 500 points/nm
Generated table with 1300 data points for 1-4 LJ12.
Tabscale = 500 points/nm

Removing pbc first time

Initializing LINear Constraint Solver

The number of constraints is 82474

Linking all bonded interactions to atoms
There are 11336 inter charge-group exclusions,
will use an extra communication step for exclusion forces for PME

Intra-simulation communication will occur every 1 steps.
Center of mass motion removal mode is Linear
We have the following groups for center of mass motion removal:
  0:  System
There are: 126997 Atoms
Atom distribution over 6 domains: av 21166 stddev 413 min 20824 max 21932
Grid: 5 x 16 x 16 cells

Constraining the starting coordinates (step 0)

Constraining the coordinates at t0-dt (step 0)
RMS relative constraint deviation after constraining: 3.38e-06
Initial temperature: 300.081 K

Started mdrun on rank 0 Thu Mar  2 13:02:54 2023

           Step           Time
              0        0.00000

   Energies (kJ/mol)
           Bond          Angle       G96Angle    Proper Dih.          LJ-14
    9.68723e+03    9.93236e+02    1.55675e+05    1.52986e+02    0.00000e+00
     Coulomb-14        LJ (SR)   Coulomb (SR)   Coul. recip. Position Rest.
    0.00000e+00   -5.25974e+05   -3.48233e+05   -5.35573e+04    1.49606e-06
      Potential    Kinetic En.   Total Energy  Conserved En.    Temperature
   -7.61256e+05    3.72700e+05   -3.88555e+05   -3.88204e+05    3.00325e+02
    2.69356e+03    4.11862e-06

	<====  A V E R A G E S  ====>

	Statistics over 1001 steps using 11 frames

   Energies (kJ/mol)
           Bond          Angle       G96Angle    Proper Dih.          LJ-14
    7.73535e+03    4.75305e+02    1.49370e+05    1.32374e+02    0.00000e+00
     Coulomb-14        LJ (SR)   Coulomb (SR)   Coul. recip. Position Rest.
    0.00000e+00   -7.01100e+05   -4.53675e+05   -6.46160e+04    1.07870e+03
      Potential    Kinetic En.   Total Energy  Conserved En.    Temperature
   -1.06060e+06    3.72332e+05   -6.88268e+05   -3.88265e+05    3.00028e+02
 Pressure (bar)   Constr. rmsd
   -2.38563e+02    0.00000e+00

          Box-X          Box-Y          Box-Z
    1.80003e+01    1.80003e+01    1.80003e+01

   Total Virial (kJ/mol)
    1.61283e+05    1.92782e+03   -5.19030e+03
    1.92767e+03    1.67738e+05   -1.26431e+03
   -5.18983e+03   -1.26428e+03    1.69281e+05

   Pressure (bar)
   -2.11324e+02   -1.05384e+01    2.82683e+01
   -1.05375e+01   -2.51948e+02    7.90450e+00
    2.82656e+01    7.90431e+00   -2.52418e+02

      T-Protein  T-non-Protein
    2.98079e+02    3.00094e+02
